0,   100.00,  32, 0, 1, 60.00     / PSS(R)E 32 RAW created by rawd32  TUE, MAR 01 2022  21:00
SIMPLIFIED WECC240 MODEL: PRELIMINARY DRAFT, RESEARCH ONLY
FOR PSERC PROJECT M21 - SEE PROJECT DOCUMENTS FOR DETAILS
  1001,'FOURCORN    ', 500.0000,1,   1,   3,   1,1.02588,  22.1691
  1002,'FOURCORN    ', 345.0000,1,   1,   3,   1,1.01400,  26.7881
  1003,'FOURCORN    ', 230.0000,2,   1,  10,   1,0.97343,  18.2070
  1004,'SAN JUAN    ', 345.0000,2,   1,  10,   1,1.04133,  39.9459
  1032,'FCNGN4CC    ',  20.0000,2,   1,  10,   1,1.01695,  27.3629
  1034,'SJUAN G4    ',  20.0000,2,   1,  10,   1,1.04386,  41.5256
  1101,'CORONADO    ', 500.0000,2,   1,   3,   1,1.01000,  -1.8515
  1102,'CHOLLA      ', 345.0000,1,   1,   3,   1,0.97937,   9.7340
  1131,'CORONADO    ',  20.0000,2,   1,   3,   1,1.01081,  -1.1235
  1201,'MOENKOPI    ', 500.0000,1,   1,   3,   1,1.08407,   2.2631
  1202,'NAVAJO      ', 500.0000,1,   1,   3,   1,1.08000,   5.1678
  1232,'NAVAJO 2    ',  20.0000,2,   1,   3,   1,1.08082,   5.9814
  1301,'MEAD        ', 500.0000,2,   1,   3,   1,1.04500,  -2.5990
  1302,'H ALLEN     ', 500.0000,1,   1,   9,   1,1.02691,  -2.0148
  1303,'H ALLEN     ', 345.0000,2,   1,   9,   1,1.00500,  -4.4821
  1331,'HOOVER      ',  20.0000,2,   1,   3,   1,1.04514,  -1.5277
  1333,'H ALLEN     ',  20.0000,2,   1,   9,   1,1.00879,  -3.0535
  1401,'PALOVRDE    ', 500.0000,2,   1,   3,   1,1.03500,  -6.9948
  1402,'WESTWING    ', 500.0000,2,   1,   3,   1,1.05807, -12.3292
  1403,'PARKER      ', 230.0000,1,   1,   3,   1,1.03628,  -7.2440
  1431,'PALOVRD2    ',  20.0000,2,   1,   3,   1,1.04071,  -4.7138
  2000,'MEXICO      ', 230.0000,1,   2,   7,   1,1.00000, -14.0540
  2030,'MEXICO      ',  20.0000,2,   2,   7,   1,1.00150, -13.3397
  2100,'IMPERIAL    ', 230.0000,1,   2,   2,   1,1.03500,  -8.5144
  2130,'IMPERIAL    ',  20.0000,2,   2,   2,   1,1.03579,  -8.1680
  2201,'MIGUEL      ', 500.0000,1,   2,   2,   1,0.98590, -25.9069
  2202,'MIGUEL      ', 230.0000,2,   2,   2,   1,0.98409, -27.4221
  2203,'MISSION     ', 230.0000,2,   2,   2,   1,1.00500, -29.2277
  2233,'MISSION     ',  20.0000,2,   2,   2,   1,1.00749, -29.0127
  2301,'IMPRLVLY    ', 500.0000,1,   2,   2,   1,1.03358, -11.1612
  2302,'IMPRLVLY    ', 230.0000,1,   2,   2,   1,1.03500, -10.1086
  2332,'IMPRLVLY    ',  20.0000,2,   2,   2,   1,1.03560,  -9.8739
  2400,'DEVERS      ', 500.0000,2,   2,   2,   1,1.02440, -16.0230
  2401,'LUGO        ', 500.0000,2,   2,   2,   1,1.04969, -10.4936
  2402,'MIRALOMA    ', 500.0000,2,   2,   2,   1,1.02985, -15.8243
  2403,'VALLEY      ', 500.0000,2,   2,   2,   1,1.02280, -19.7325
  2404,'VINCENT     ', 500.0000,1,   2,   2,   1,1.03506,  -6.0222
  2405,'SYLMAR S    ', 230.0000,2,   2,   2,   1,1.01245,  -9.5185
  2406,'EAGLROCK    ', 230.0000,2,   2,   2,   1,1.00824, -14.7807
  2407,'LITEHIPE    ', 230.0000,2,   2,   2,   1,0.97137, -22.6726
  2408,'MESA CAL    ', 230.0000,2,   2,   2,   1,1.00900, -10.1894
  2409,'MIRALOMA    ', 230.0000,2,   2,   2,   1,1.02000, -17.4757
  2410,'PARDEE      ', 230.0000,2,   2,   2,   1,1.00702, -13.0951
  2411,'VINCENT     ', 230.0000,2,   2,   2,   1,1.02022,  -8.3453
  2431,'LUGO        ',  20.0000,2,   2,   2,   1,1.05000, -10.4676
  2434,'VINCENT     ',  20.0000,2,   2,   2,   1,1.02000,  -8.3178
  2438,'MESA CAL    ',  20.0000,2,   2,   2,   1,1.00984,  -8.8687
  2439,'MIRALOMA    ',  20.0000,2,   2,   2,   1,1.01978, -17.4206
  2501,'SERRANO     ', 500.0000,1,   2,   2,   1,1.02489, -18.4031
  2502,'SERRANO     ', 230.0000,2,   2,   2,   1,1.02225, -20.1703
  2503,'S.ONOFRE    ', 230.0000,2,   2,   2,   1,1.00900, -23.5707
  2533,'S.ONOFRE    ',  20.0000,2,   2,   2,   1,1.01004, -23.0369
  2600,'ADELANTO    ', 500.0000,1,   2,   2,   1,1.05417,  -5.6921
  2601,'RINALDI     ', 500.0000,1,   2,   2,   1,1.04707,  -6.9797
  2602,'STA E       ', 500.0000,1,   2,   2,   1,1.02169,  -7.1958
  2603,'VICTORVL    ', 500.0000,1,   2,   2,   1,1.05482,  -6.3271
  2604,'INTERMT     ', 345.0000,1,   2,   2,   1,1.06000,  36.9042
  2605,'STA B1      ', 287.0000,1,   2,   2,   1,1.02078,  -5.3731
  2606,'STA B2      ', 287.0000,1,   2,   2,   1,1.02078,  -5.3731
  2607,'VICTORVL    ', 287.0000,1,   2,   2,   1,1.04738,  -6.0545
  2608,'CASTAIC     ', 230.0000,1,   2,   2,   1,1.01990,  -9.0646
  2609,'GLENDAL     ', 230.0000,1,   2,   2,   1,0.99970,  -6.1635
  2610,'HAYNES      ', 230.0000,1,   2,   2,   1,1.00400,   7.8177
  2611,'OLIVE       ', 230.0000,1,   2,   2,   1,1.01772,  -8.2574
  2612,'RINALDI     ', 230.0000,1,   2,   2,   1,1.01500,  -8.4638
  2613,'RIVER       ', 230.0000,2,   2,   2,   1,0.99456,  -2.7658
  2614,'STA BLD     ', 230.0000,1,   2,   2,   1,1.00205,  -4.2754
  2615,'STA E       ', 230.0000,2,   2,   2,   1,1.00558,  -7.4941
  2616,'STA F       ', 230.0000,1,   2,   2,   1,0.99654,  -3.0840
  2617,'STA G       ', 230.0000,1,   2,   2,   1,0.99767,  -4.7615
  2618,'STA J       ', 230.0000,2,   2,   2,   1,1.01245,  -9.5849
  2619,'SYLMARLA    ', 230.0000,1,   2,   2,   1,1.01383,  -8.0918
  2620,'VALLEY      ', 230.0000,1,   2,   2,   1,1.01010,  -8.5174
  2621,'STA B       ', 138.0000,1,   2,   2,   1,1.01283,  -5.2622
  2630,'HAYNES3G    ',  20.0000,2,   2,   2,   1,1.00486,   8.4621
  2631,'OLIVE       ',  20.0000,2,   2,   2,   1,1.01800,  -8.1932
  2634,'INTERM1G    ',  20.0000,2,   2,   2,   1,1.06198,  37.2953
  2637,'OWENS G     ',  20.0000,2,   2,   2,   1,1.01528,  -8.4602
  2638,'CASTAI4G    ',  20.0000,2,   2,   2,   1,1.02018,  -9.0646
  2901,'ELDORADO    ', 500.0000,1,   2,   2,   1,1.09814,  -4.1658
  2902,'MOHAVE      ', 500.0000,1,   2,   2,   1,1.11007,  -6.1666
  3101,'EMBRCDRD    ', 230.0000,2,   2,   2,   1,0.98582,  -3.9359
  3102,'MARTIN      ', 230.0000,1,   2,   2,   1,0.99097,  -2.7286
  3103,'SANMATEO    ', 230.0000,2,   2,   2,   1,1.00000,  -0.8804
  3104,'MARTIN      ', 115.0000,2,   2,   2,   1,0.98730,  -8.3009
  3105,'POTRERO     ', 115.0000,1,   2,   2,   1,1.00000,  -8.7078
  3133,'SANMATEO    ',  20.0000,2,   2,   2,   1,1.00114,  -0.8801
  3135,'POTRERO     ',  20.0000,2,   2,   2,   1,1.00044,  -8.6448
  3201,'C.COSTA     ', 230.0000,2,   2,   2,   1,0.99582,   0.4328
  3202,'MORAGA      ', 230.0000,2,   2,   2,   1,0.99602,   0.6889
  3203,'NEWARK      ', 230.0000,2,   2,   2,   1,0.99787,   0.1854
  3204,'PITSBURG    ', 230.0000,2,   2,   2,   1,1.01000,   3.7859
  3205,'SOBRANTE    ', 230.0000,2,   2,   2,   1,0.99802,   1.5441
  3234,'PITSBURG    ',  20.0000,2,   2,   2,   1,1.01213,   4.9016
  3301,'METCALF     ', 500.0000,1,   2,   2,   1,0.99690,   4.3630
  3302,'JEFFERSN    ', 230.0000,2,   2,   2,   1,0.98522,  -2.3978
  3303,'METCALF     ', 230.0000,2,   2,   2,   1,1.00000,   1.1162
  3304,'MONTAVIS    ', 230.0000,2,   2,   2,   1,0.98957,  -1.0211
  3305,'RAVENSWD    ', 230.0000,2,   2,   2,   1,0.99810,  -1.3224
  3333,'METCALF     ',  20.0000,2,   2,   2,   1,1.00226,   1.3237
  3401,'GREGG       ', 230.0000,2,   2,   2,   1,0.97902,  -9.1567
  3402,'HELMS PP    ', 230.0000,1,   2,   2,   1,1.00000,  -9.2894
  3403,'MC CALL     ', 230.0000,2,   2,   2,   1,1.00000,   2.3395
  3404,'PANOCHE     ', 230.0000,2,   2,   2,   1,0.99111,  -3.0625
  3405,'WILSON      ', 230.0000,2,   2,   2,   1,0.96928, -11.0302
  3432,'HELMS PP    ',  20.0000,2,   2,   2,   1,1.00065,  -9.2894
  3433,'MC CALL     ',  20.0000,2,   2,   2,   1,1.00023,   2.6560
  3501,'FULTON      ', 230.0000,2,   2,   2,   1,1.00000,   5.5272
  3531,'FULTON      ',  20.0000,2,   2,   2,   1,1.00057,   5.8319
  3601,'HUMBOLDT    ', 115.0000,1,   2,   2,   1,1.01500,  17.4427
  3631,'HUMBOLDT    ',  20.0000,2,   2,   2,   1,1.01496,  17.4697
  3701,'SUMMIT      ', 115.0000,1,   1,   9,   1,1.00000,   3.0629
  3731,'SUMMIT      ',  20.0000,2,   1,   9,   1,1.00056,   3.1264
  3801,'DIABLO      ', 500.0000,1,   2,   2,   1,1.04900,   5.2616
  3802,'GATES       ', 500.0000,1,   2,   2,   1,1.03241,  -0.2602
  3803,'MIDWAY      ', 500.0000,1,   2,   2,   1,1.04159,  -2.2592
  3804,'GATES       ', 230.0000,1,   2,   2,   1,1.00222,  -2.4078
  3805,'MIDWAY      ', 230.0000,2,   2,   2,   1,1.03500,  -2.0333
  3806,'MORROBAY    ', 230.0000,1,   2,   2,   1,1.01900,   0.9105
  3831,'DIABLO1     ',  20.0000,2,   2,   2,   1,1.04912,   5.8104
  3835,'MIDWAY      ',  20.0000,2,   2,   2,   1,1.03567,  -1.9374
  3836,'MORROBAY    ',  20.0000,2,   2,   2,   1,1.01899,   1.0978
  3891,'GATES1      ', 500.0000,1,   2,   2,   1,1.05145,  -5.3761
  3892,'MIDWAY1     ', 500.0000,1,   2,   2,   1,1.03310,   2.0189
  3893,'MIDWAY2     ', 500.0000,1,   2,   2,   1,1.03522, -10.2758
  3894,'MIDWAY3     ', 500.0000,1,   2,   2,   1,1.03288,   2.0904
  3895,'MIDWAY4     ', 500.0000,1,   2,   2,   1,1.03549, -10.3032
  3896,'MIDWAY5     ', 500.0000,1,   2,   2,   1,1.03339,   2.3050
  3897,'MIDWAY6     ', 500.0000,1,   2,   2,   1,1.03696, -10.0938
  3901,'LOSBANOS    ', 500.0000,1,   2,   2,   1,1.01457,   2.8950
  3902,'MOSSLAND    ', 500.0000,1,   2,   2,   1,1.00000,   6.1591
  3903,'TESLA       ', 500.0000,1,   2,   2,   1,0.99541,   8.1101
  3904,'VACA-DIX    ', 500.0000,1,   2,   2,   1,0.98993,   8.8680
  3905,'TABLE MT    ', 500.0000,1,   2,   2,   1,1.00144,  18.1052
  3906,'ROUND MT    ', 500.0000,1,   2,   2,   1,1.05142,  25.6809
  3907,'BELLOTA     ', 230.0000,2,   2,   2,   1,0.97274,  -9.1700
  3908,'BRIGHTON    ', 230.0000,1,   2,   2,   1,0.96576,  -7.3867
  3909,'COLGATE     ', 230.0000,1,   2,   2,   1,0.95789,  -2.2399
  3910,'CORTINA     ', 230.0000,1,   2,   2,   1,0.94471,  -1.1643
  3911,'COTWDPGE    ', 230.0000,1,   2,   2,   1,1.02217,  17.6662
  3912,'GLENN       ', 230.0000,1,   2,   2,   1,0.99355,   6.4665
  3913,'GOLDHILL    ', 230.0000,2,   2,   2,   1,0.98301,  -3.7060
  3914,'IGNACIO     ', 230.0000,1,   2,   2,   1,0.98879,   1.6640
  3915,'LAKEVILE    ', 230.0000,1,   2,   2,   1,0.99030,   1.6996
  3916,'LOGAN CR    ', 230.0000,1,   2,   2,   1,0.99039,   5.3175
  3917,'LOSBANOS    ', 230.0000,1,   2,   2,   1,1.00112,  -0.7947
  3918,'MOSSLAND    ', 230.0000,2,   2,   2,   1,0.99368,   0.9456
  3919,'PALERMO     ', 230.0000,1,   2,   2,   1,0.95733,   0.6437
  3920,'RIO OSO     ', 230.0000,1,   2,   2,   1,0.97301,  -2.0923
  3921,'ROUND MT    ', 230.0000,1,   2,   2,   1,1.07000,  28.5958
  3922,'TABLE MT    ', 230.0000,1,   2,   2,   1,0.97257,   6.7517
  3923,'TESLA       ', 230.0000,2,   2,   2,   1,1.01552,  -0.0074
  3924,'VACA-DIX    ', 230.0000,2,   2,   2,   1,0.99219,   2.2270
  3925,'COTWDPGE    ', 115.0000,1,   2,   2,   1,1.01975,  17.5408
  3926,'RIO OSO     ', 115.0000,1,   2,   2,   1,0.98224,  -0.5750
  3931,'ROUND MT    ',  20.0000,2,   2,   2,   1,1.07145,  28.9574
  3932,'MOSSLAND    ',  20.0000,2,   2,   2,   1,0.99997,   6.5472
  3933,'TESLA       ',  20.0000,3,   2,   2,   1,1.02000,   0.0000
  4001,'MALIN       ', 500.0000,1,   3,  11,   1,1.08000,  30.0427
  4002,'SUMMER L    ', 500.0000,1,   3,  11,   1,1.10845,  39.4116
  4003,'BURNS       ', 500.0000,1,   3,  11,   1,1.13775,  52.8271
  4004,'GRIZZLY     ', 500.0000,1,   3,  11,   1,1.10848,  40.7019
  4005,'JOHN DAY    ', 500.0000,1,   3,  11,   1,1.12100,  50.3442
  4006,'BIG EDDY    ', 500.0000,1,   3,  11,   1,1.11817,  47.8933
  4007,'CELILOCA    ', 500.0000,1,   3,  11,   1,1.11864,  47.7696
  4008,'MALIN       ', 345.0000,1,   3,  11,   1,1.07465,  27.6714
  4009,'BIG EDDY    ', 230.0000,2,   3,  11,   1,1.13013,  46.3406
  4010,'CELILO      ', 230.0000,1,   3,  11,   1,1.12721,  45.9744
  4031,'MALIN       ',  20.0000,2,   3,  11,   1,1.08568,  30.4649
  4035,'JOHN DAY    ',  20.0000,2,   3,  11,   1,1.12796,  50.9197
  4039,'DALLES21    ',  20.0000,2,   3,  13,   1,1.13704,  46.8969
  4090,'MALIN1      ', 500.0000,1,   3,  11,   1,1.10417,  38.0644
  4091,'GRIZZLY1    ', 500.0000,1,   3,  11,   1,1.11258,  40.1534
  4092,'GRIZZLY2    ', 500.0000,1,   3,  11,   1,1.09741,  32.6906
  4093,'GRIZZLY3    ', 500.0000,1,   3,  11,   1,1.09774,  31.6424
  4094,'GRIZZLY4    ', 500.0000,1,   3,  11,   1,1.10456,  39.6395
  4095,'GRIZZLY5    ', 500.0000,1,   3,  11,   1,1.09654,  32.2320
  4096,'GRIZZLY6    ', 500.0000,1,   3,  11,   1,1.09700,  31.1237
  4097,'GRIZZLY7    ', 500.0000,1,   3,  11,   1,1.10389,  39.5814
  4101,'COULEE      ', 500.0000,1,   3,  13,   1,1.12800,  75.5471
  4102,'HANFORD     ', 500.0000,1,   3,  13,   1,1.09600,  65.0543
  4103,'BELL        ', 500.0000,1,   3,  13,   1,1.09351,  60.5348
  4104,'BELL        ', 230.0000,1,   3,  13,   1,1.07070,  49.6258
  4131,'COULEE      ',  20.0000,2,   3,  13,   1,1.13267,  77.6463
  4132,'HANFORD     ',  20.0000,2,   3,  13,   1,1.09978,  66.8545
  4201,'NORTH       ', 500.0000,2,   3,  13,   1,1.10755,  67.8282
  4202,'WCASCADE    ', 500.0000,1,   3,  13,   1,1.06000,  48.5654
  4203,'WILLAMET    ', 500.0000,1,   3,  13,   1,1.01354,  43.1968
  4204,'MERIDIAN    ', 500.0000,1,   3,  13,   1,1.06815,  31.1905
  4231,'NORTH G3    ',  20.0000,2,   3,  13,   1,1.12161,  68.8711
  4232,'WCASCADE    ',  20.0000,2,   3,  13,   1,1.05964,  48.8169
  5001,'CANADA      ', 500.0000,1,   3,   4,   1,1.05000,  68.1867
  5002,'CANALB      ', 500.0000,1,   3,   1,   1,1.05500,  69.0352
  5003,'CA230TO     ', 230.0000,1,   3,   1,   1,1.05273,  62.5760
  5004,'CA230       ', 230.0000,1,   3,   4,   1,1.06345,  55.9997
  5031,'CANAD G1    ',  20.0000,2,   3,   4,   1,1.04438,  70.1603
  5032,'CMAIN GM    ',  20.0000,2,   3,   1,   1,1.06127,  71.7205
  6101,'MIDPOINT    ', 500.0000,1,   3,   6,   1,1.14438,  68.0369
  6102,'MIDPOINT    ', 345.0000,1,   3,   6,   1,1.13000,  72.1155
  6103,'BORAH       ', 345.0000,1,   3,   6,   1,1.08757,  68.1805
  6104,'BORAH       ', 230.0000,2,   3,   6,   1,1.04834,  60.6584
  6132,'MIDPOINT    ',  20.0000,2,   3,   6,   1,1.13221,  73.0519
  6201,'COLSTRP     ', 500.0000,1,   3,   8,   1,1.12000,  79.2635
  6202,'GARRISON    ', 500.0000,1,   3,   8,   1,1.11956,  68.0328
  6203,'COLSTRP     ', 230.0000,1,   3,   8,   1,1.09294,  75.0322
  6204,'GARRISON    ', 230.0000,2,   3,   8,   1,1.10167,  68.5957
  6205,'MONTANA     ', 230.0000,1,   3,   8,   1,1.08000,  80.0037
  6231,'COLSTRP     ',  20.0000,2,   3,   8,   1,1.11973,  79.8209
  6235,'MONTA G1    ',  20.0000,2,   3,   8,   1,1.07761,  80.3897
  6301,'BRIDGER     ', 345.0000,1,   3,  14,   1,1.09695,  70.7755
  6302,'LARAMIE     ', 345.0000,1,   3,  14,   1,1.02730,  24.7982
  6303,'BRIDGER2    ', 230.0000,2,   3,  14,   1,1.13000,  89.8518
  6304,'LARAMIE     ', 230.0000,1,   3,  14,   1,0.99341,  39.9707
  6305,'NAUGHTON    ', 230.0000,1,   3,  14,   1,1.06000, 100.4084
  6333,'BRIDGER     ',  20.0000,2,   3,  14,   1,1.13615,  90.7834
  6335,'NAUGHT      ',  20.0000,2,   3,  14,   1,1.06507, 101.2052
  6401,'TRACYSPP    ', 345.0000,2,   1,   9,   1,1.02136,  14.4423
  6402,'SUMITSPP    ', 115.0000,1,   1,   9,   1,1.00224,   7.6594
  6403,'VALMY       ', 345.0000,1,   1,   9,   1,1.11000,  45.5757
  6404,'GONDER      ', 345.0000,1,   1,   9,   1,1.06212,  35.3444
  6433,'VALMY       ',  20.0000,2,   1,   9,   1,1.11296,  45.8790
  6501,'BENLOMND    ', 345.0000,1,   3,  12,   1,1.00780,  41.5994
  6502,'CAMP WIL    ', 345.0000,1,   3,  12,   1,1.00852,  40.8891
  6503,'EMERY       ', 345.0000,1,   3,  12,   1,1.06500,  51.8837
  6504,'MONA        ', 345.0000,1,   3,  12,   1,1.01052,  40.7124
  6505,'PINTO       ', 345.0000,1,   3,  12,   1,1.04298,  37.1843
  6506,'PINTO PS    ', 345.0000,1,   3,  12,   1,1.03979,  34.0015
  6507,'SIGURD      ', 345.0000,1,   3,  12,   1,1.02620,  40.4426
  6508,'SPAN FRK    ', 345.0000,1,   3,  12,   1,1.02039,  43.5016
  6509,'TERMINAL    ', 345.0000,1,   3,  12,   1,1.00853,  41.1092
  6510,'BENLOMND    ', 230.0000,2,   3,  12,   1,0.92800,  40.5800
  6533,'EMERY       ',  20.0000,2,   3,  12,   1,1.06786,  52.8200
  7001,'COLOEAST    ', 345.0000,2,   3,   5,   1,1.05000,  22.6548
  7002,'CRAIG       ', 345.0000,1,   3,   5,   1,1.01500,  24.9644
  7031,'COLOEAST    ',  20.0000,2,   3,   5,   1,1.06004,  23.9436
  7032,'CRAIG       ',  20.0000,2,   3,   5,   1,1.00996,  25.8145
  8001,'OLINDA      ', 500.0000,1,   2,   2,   1,1.03675,  18.3118
  8002,'TRACY       ', 500.0000,1,   2,   2,   1,0.99985,   8.3015
  8003,'COTWDWAP    ', 230.0000,2,   2,   2,   1,1.07500,  17.3751
  8004,'RNCHSECO    ', 230.0000,2,   2,   2,   1,1.00000,  -8.9041
  8005,'TRACYPMP    ', 230.0000,2,   2,   2,   1,0.97407,  -2.0767
  8033,'COTWDWAP    ',  20.0000,2,   2,   2,   1,1.07762,  17.6610
  8034,'RNCHSECO    ',  20.0000,2,   2,   2,   1,1.00333,  -8.0072
 0 /End of Bus data, Begin Load data
  1002,'1 ',1,   1,   3,   226.842,  -600.000,     0.000,     0.000,     0.000,     0.000,   1,1
  1003,'1 ',1,   1,  10,  2153.320,   366.855,     0.000,     0.000,     0.000,     0.000,   1,1
  1004,'1 ',1,   1,  10,  1037.949,     5.521,     0.000,     0.000,     0.000,     0.000,   1,1
  1101,'1 ',1,   1,   3,  4527.366,  -137.044,     0.000,     0.000,     0.000,     0.000,   1,1
  1102,'1 ',1,   1,   3,   176.445,    23.004,     0.000,     0.000,     0.000,     0.000,   1,1
  1201,'1 ',1,   1,   3,   166.989,    -2.012,     0.000,     0.000,     0.000,     0.000,   1,1
  1202,'1 ',1,   1,   3,   875.610,   287.132,     0.000,     0.000,     0.000,     0.000,   1,1
  1301,'1 ',1,   1,   3,  2704.779,   352.826,     0.000,     0.000,     0.000,     0.000,   1,1
  1302,'1 ',1,   1,   9,    17.556,     2.304,     0.000,     0.000,     0.000,     0.000,   1,1
  1303,'1 ',1,   1,   9,  6235.137,   813.349,     0.000,     0.000,     0.000,     0.000,   1,1
  1401,'1 ',1,   1,   3,  6535.537,  1524.594,     0.000,     0.000,     0.000,     0.000,   1,1
  1402,'1 ',1,   1,   3,  5366.628,  -600.161,     0.000,     0.000,     0.000,     0.000,   1,1
  2000,'1 ',1,   2,   7,  2207.188,   287.916,     0.000,     0.000,     0.000,     0.000,   1,1
  2100,'1 ',1,   2,   2,   281.150,    54.830,     0.000,     0.000,     0.000,     0.000,   1,1
  2202,'1 ',1,   2,   2,  1545.957,   268.567,     0.000,     0.000,     0.000,     0.000,   1,1
  2203,'1 ',1,   2,   2,  1708.552,   278.273,     0.000,     0.000,     0.000,     0.000,   1,1
  2400,'1 ',1,   2,   2,   843.297,    76.664,     0.000,     0.000,     0.000,     0.000,   1,1
  2401,'1 ',1,   2,   2,   882.365,   105.214,     0.000,     0.000,     0.000,     0.000,   1,1
  2402,'1 ',1,   2,   2,  1080.022,    81.979,     0.000,     0.000,     0.000,     0.000,   1,1
  2403,'1 ',1,   2,   2,  1050.001,    38.542,     0.000,     0.000,     0.000,     0.000,   1,1
  2405,'1 ',1,   2,   2,   824.686,    22.901,     0.000,     0.000,     0.000,     0.000,   1,1
  2406,'1 ',1,   2,   2,   737.405,   -40.751,     0.000,     0.000,     0.000,     0.000,   1,1
  2407,'1 ',1,   2,   2,  1732.775,   -36.535,     0.000,     0.000,     0.000,     0.000,   1,1
  2408,'1 ',1,   2,   2,  1743.278,   -72.623,     0.000,     0.000,     0.000,     0.000,   1,1
  2409,'1 ',1,   2,   2,  1601.778,   -86.698,     0.000,     0.000,     0.000,     0.000,   1,1
  2410,'1 ',1,   2,   2,  1576.785,    58.184,     0.000,     0.000,     0.000,     0.000,   1,1
  2411,'1 ',1,   2,   2,  1087.628,    75.956,     0.000,     0.000,     0.000,     0.000,   1,1
  2502,'1 ',1,   2,   2,  2369.146,   -91.905,     0.000,     0.000,     0.000,     0.000,   1,1
  2503,'1 ',1,   2,   2,  1845.926,   201.991,     0.000,     0.000,     0.000,     0.000,   1,1
  2600,'1 ',1,   2,   2, -1863.906,     0.000,     0.000,     0.000,     0.000,     0.000,   1,1
  2602,'1 ',1,   2,   2,    99.278,    12.955,     0.000,     0.000,     0.000,     0.000,   1,1
  2604,'1 ',1,   2,   2,  2050.781,     0.000,     0.000,     0.000,     0.000,     0.000,   1,1
  2608,'1 ',1,   2,   2,    99.278,    12.955,     0.000,     0.000,     0.000,     0.000,   1,1
  2609,'1 ',1,   2,   2,   134.026,    26.805,     0.000,     0.000,     0.000,     0.000,   1,1
  2610,'1 ',1,   2,   2,    99.278,    12.955,     0.000,     0.000,     0.000,     0.000,   1,1
  2611,'1 ',1,   2,   2,    99.278,    12.955,     0.000,     0.000,     0.000,     0.000,   1,1
  2612,'1 ',1,   2,   2,   120.127,    24.819,     0.000,     0.000,     0.000,     0.000,   1,1
  2613,'1 ',1,   2,   2,   317.693,    64.531,     0.000,     0.000,     0.000,     0.000,   1,1
  2614,'1 ',1,   2,   2,   137.005,    27.798,     0.000,     0.000,     0.000,     0.000,   1,1
  2615,'1 ',1,   2,   2,   801.977,   131.149,     0.000,     0.000,     0.000,     0.000,   1,1
  2616,'1 ',1,   2,   2,   116.157,    23.827,     0.000,     0.000,     0.000,     0.000,   1,1
  2617,'1 ',1,   2,   2,   120.128,    24.819,     0.000,     0.000,     0.000,     0.000,   1,1
  2618,'1 ',1,   2,   2,   881.302,    -6.155,     0.000,     0.000,     0.000,     0.000,   1,1
  2619,'1 ',1,   2,   2, -2773.830,     0.000,     0.000,     0.000,     0.000,     0.000,   1,1
  2620,'1 ',1,   2,   2,   203.720,    17.473,     0.000,     0.000,     0.000,     0.000,   1,1
  2621,'1 ',1,   2,   2,   235.491,   -62.746,     0.000,     0.000,     0.000,     0.000,   1,1
  3101,'1 ',1,   2,   2,   341.307,    52.829,     0.000,     0.000,     0.000,     0.000,   1,1
  3102,'1 ',1,   2,   2,   159.465,    24.929,     0.000,     0.000,     0.000,     0.000,   1,1
  3103,'1 ',1,   2,   2,   419.611,    59.777,     0.000,     0.000,     0.000,     0.000,   1,1
  3104,'1 ',1,   2,   2,   309.973,    40.133,     0.000,     0.000,     0.000,     0.000,   1,1
  3105,'1 ',1,   2,   2,   239.302,    49.091,     0.000,     0.000,     0.000,     0.000,   1,1
  3201,'1 ',1,   2,   2,   462.477,    97.849,     0.000,     0.000,     0.000,     0.000,   1,1
  3202,'1 ',1,   2,   2,   586.180,    83.474,     0.000,     0.000,     0.000,     0.000,   1,1
  3203,'1 ',1,   2,   2,   657.104,   158.475,     0.000,     0.000,     0.000,     0.000,   1,1
  3204,'1 ',1,   2,   2,   668.788,    95.313,     0.000,     0.000,     0.000,     0.000,   1,1
  3205,'1 ',1,   2,   2,   546.059,    77.781,     0.000,     0.000,     0.000,     0.000,   1,1
  3302,'1 ',1,   2,   2,   345.326,    85.790,     0.000,     0.000,     0.000,     0.000,   1,1
  3303,'1 ',1,   2,   2,   625.411,   150.715,     0.000,     0.000,     0.000,     0.000,   1,1
  3304,'1 ',1,   2,   2,   533.480,   122.615,     0.000,     0.000,     0.000,     0.000,   1,1
  3305,'1 ',1,   2,   2,   430.321,    61.225,     0.000,     0.000,     0.000,     0.000,   1,1
  3401,'1 ',1,   2,   2,   557.707,   135.909,     0.000,     0.000,     0.000,     0.000,   1,1
  3403,'1 ',1,   2,   2,   515.969,    73.583,     0.000,     0.000,     0.000,     0.000,   1,1
  3404,'1 ',1,   2,   2,   438.463,    62.076,     0.000,     0.000,     0.000,     0.000,   1,1
  3405,'1 ',1,   2,   2,   448.896,    63.723,     0.000,     0.000,     0.000,     0.000,   1,1
  3501,'1 ',1,   2,   2,   625.016,    89.015,     0.000,     0.000,     0.000,     0.000,   1,1
  3601,'1 ',1,   2,   2,   104.856,    14.845,     0.000,     0.000,     0.000,     0.000,   1,1
  3701,'1 ',1,   1,   9,   317.051,    15.847,     0.000,     0.000,     0.000,     0.000,   1,1
  3801,'1 ',1,   2,   2,   191.223,    47.411,     0.000,     0.000,     0.000,     0.000,   1,1
  3804,'1 ',1,   2,   2,   223.641,    55.319,     0.000,     0.000,     0.000,     0.000,   1,1
  3805,'1 ',1,   2,   2,   499.389,   163.106,     0.000,     0.000,     0.000,     0.000,   1,1
  3806,'1 ',1,   2,   2,   289.586,    41.366,     0.000,     0.000,     0.000,     0.000,   1,1
  3902,'1 ',1,   2,   2,   152.991,    38.248,     0.000,     0.000,     0.000,     0.000,   1,1
  3903,'1 ',1,   2,   2,   213.253,    30.271,     0.000,     0.000,     0.000,     0.000,   1,1
  3907,'1 ',1,   2,   2,   461.358,    63.071,     0.000,     0.000,     0.000,     0.000,   1,1
  3908,'1 ',1,   2,   2,   200.281,    24.716,     0.000,     0.000,     0.000,     0.000,   1,1
  3909,'1 ',1,   2,   2,   170.960,    39.786,     0.000,     0.000,     0.000,     0.000,   1,1
  3910,'1 ',1,   2,   2,   241.844,    34.442,     0.000,     0.000,     0.000,     0.000,   1,1
  3911,'1 ',1,   2,   2,   233.138,    47.116,     0.000,     0.000,     0.000,     0.000,   1,1
  3912,'1 ',1,   2,   2,   174.507,    -0.634,     0.000,     0.000,     0.000,     0.000,   1,1
  3913,'1 ',1,   2,   2,   329.548,    43.435,     0.000,     0.000,     0.000,     0.000,   1,1
  3914,'1 ',1,   2,   2,   227.755,    52.549,     0.000,     0.000,     0.000,     0.000,   1,1
  3915,'1 ',1,   2,   2,   254.460,    53.403,     0.000,     0.000,     0.000,     0.000,   1,1
  3916,'1 ',1,   2,   2,   155.005,     0.000,     0.000,     0.000,     0.000,     0.000,   1,1
  3917,'1 ',1,   2,   2,   238.189,    43.995,     0.000,     0.000,     0.000,     0.000,   1,1
  3918,'1 ',1,   2,   2,   319.281,    75.463,     0.000,     0.000,     0.000,     0.000,   1,1
  3919,'1 ',1,   2,   2,   184.512,    24.095,     0.000,     0.000,     0.000,     0.000,   1,1
  3920,'1 ',1,   2,   2,   172.503,    23.677,     0.000,     0.000,     0.000,     0.000,   1,1
  3921,'1 ',1,   2,   2,   150.890,    34.821,     0.000,     0.000,     0.000,     0.000,   1,1
  3922,'1 ',1,   2,   2,   253.450,    31.920,     0.000,     0.000,     0.000,     0.000,   1,1
  3923,'1 ',1,   2,   2,   399.063,    67.021,     0.000,     0.000,     0.000,     0.000,   1,1
  3924,'1 ',1,   2,   2,   332.490,    47.166,     0.000,     0.000,     0.000,     0.000,   1,1
  3926,'1 ',1,   2,   2,   267.355,    16.668,     0.000,     0.000,     0.000,     0.000,   1,1
  4002,'1 ',1,   3,  11,   168.696,    22.001,     0.000,     0.000,     0.000,     0.000,   1,1
  4004,'1 ',1,   3,  11,   270.476,    35.304,     0.000,     0.000,     0.000,     0.000,   1,1
  4005,'1 ',1,   3,  11,   480.114,   157.419,     0.000,     0.000,     0.000,     0.000,   1,1
  4008,'1 ',1,   3,  11,   285.145,    37.198,     0.000,     0.000,     0.000,     0.000,   1,1
  4009,'1 ',1,   3,  11,  2208.742,   431.395,     0.000,     0.000,     0.000,     0.000,   1,1
  4010,'1 ',1,   3,  11,  3133.542,     0.000,     0.000,     0.000,     0.000,     0.000,   1,1
  4101,'1 ',1,   3,  13,   995.028,   129.784,     0.000,     0.000,     0.000,     0.000,   1,1
  4102,'1 ',1,   3,  13,   480.649,    68.664,     0.000,     0.000,     0.000,     0.000,   1,1
  4103,'1 ',1,   3,  13,    11.534,     1.485,     0.000,     0.000,     0.000,     0.000,   1,1
  4104,'1 ',1,   3,  13,  2521.452,   328.093,     0.000,     0.000,     0.000,     0.000,   1,1
  4201,'1 ',1,   3,  13,  5762.659,   461.013,     0.000,     0.000,     0.000,     0.000,   1,1
  4202,'1 ',1,   3,  13,  4558.239,   594.626,     0.000,     0.000,     0.000,     0.000,   1,1
  4203,'1 ',1,   3,  13,  4379.174,   571.213,     0.000,     0.000,     0.000,     0.000,   1,1
  4204,'1 ',1,   3,  13,  1014.517,   132.339,     0.000,     0.000,     0.000,     0.000,   1,1
  5001,'1 ',1,   3,   4,  7574.052,  1721.375,     0.000,     0.000,     0.000,     0.000,   1,1
  5002,'1 ',1,   3,   1,  9003.983,  1174.359,     0.000,     0.000,     0.000,     0.000,   1,1
  5003,'1 ',1,   3,   1,   616.617,    80.618,     0.000,     0.000,     0.000,     0.000,   1,1
  6102,'1 ',1,   3,   6,  1053.144,  -345.277,     0.000,     0.000,     0.000,     0.000,   1,1
  6103,'1 ',1,   3,   6,   391.884,    51.109,     0.000,     0.000,     0.000,     0.000,   1,1
  6104,'1 ',1,   3,   6,  1694.827,   221.051,     0.000,     0.000,     0.000,     0.000,   1,1
  6201,'1 ',1,   3,   8,   205.820,    26.857,     0.000,     0.000,     0.000,     0.000,   1,1
  6202,'1 ',1,   3,   8,    88.645,    13.505,     0.000,     0.000,     0.000,     0.000,   1,1
  6203,'1 ',1,   3,   8,   612.344,   145.092,     0.000,     0.000,     0.000,     0.000,   1,1
  6204,'1 ',1,   3,   8,   698.958,   156.310,     0.000,     0.000,     0.000,     0.000,   1,1
  6205,'1 ',1,   3,   8,   489.283,    86.344,     0.000,     0.000,     0.000,     0.000,   1,1
  6301,'1 ',1,   3,  14,   516.375,    67.362,     0.000,     0.000,     0.000,     0.000,   1,1
  6302,'1 ',1,   3,  14,   591.831,    77.222,     0.000,     0.000,     0.000,     0.000,   1,1
  6303,'1 ',1,   3,  14,   746.602,    97.404,     0.000,     0.000,     0.000,     0.000,   1,1
  6305,'1 ',1,   3,  14,    60.232,    19.752,     0.000,     0.000,     0.000,     0.000,   1,1
  6401,'1 ',1,   1,   9,  1672.454,   218.169,     0.000,     0.000,     0.000,     0.000,   1,1
  6402,'1 ',1,   1,   9,   272.521,    35.568,     0.000,     0.000,     0.000,     0.000,   1,1
  6403,'1 ',1,   1,   9,     2.198,     0.272,     0.000,     0.000,     0.000,     0.000,   1,1
  6404,'1 ',1,   1,   9,    28.981,     3.776,     0.000,     0.000,     0.000,     0.000,   1,1
  6501,'1 ',1,   3,  12,   195.548,    64.130,     0.000,     0.000,     0.000,     0.000,   1,1
  6502,'1 ',1,   3,  12,  1555.598,   277.679,     0.000,     0.000,     0.000,     0.000,   1,1
  6503,'1 ',1,   3,  12,   441.153,   144.603,     0.000,     0.000,     0.000,     0.000,   1,1
  6504,'1 ',1,   3,  12,   296.971,    38.731,     0.000,     0.000,     0.000,     0.000,   1,1
  6505,'1 ',1,   3,  12,     6.795,     2.231,     0.000,     0.000,     0.000,     0.000,   1,1
  6507,'1 ',1,   3,  12,   540.787,   -61.357,     0.000,     0.000,     0.000,     0.000,   1,1
  6508,'1 ',1,   3,  12,   131.835,    43.209,     0.000,     0.000,     0.000,     0.000,   1,1
  6509,'1 ',1,   3,  12,     8.593,     2.817,     0.000,     0.000,     0.000,     0.000,   1,1
  6510,'1 ',1,   3,  12,  1900.043,  -103.882,     0.000,     0.000,     0.000,     0.000,   1,1